/Users/rfeil/work/2_OpenFAST/openfast_BDloads_output/build/modules-local/beamdyn/beamdyn_driver bd_driver.inp